Version 4
SHEET 1 880 680
WIRE 368 32 368 -16
WIRE 368 32 352 32
WIRE 448 32 368 32
WIRE 288 80 256 80
WIRE 32 128 0 128
WIRE 448 128 448 32
WIRE 0 160 0 128
WIRE 352 352 352 320
FLAG 0 240 0
FLAG 448 208 0
FLAG 176 176 0
FLAG 352 432 0
SYMBOL voltage 0 144 M0
WINDOW 123 0 0 Left 2
WINDOW 39 0 0 Left 2
SYMATTR InstName V1
SYMATTR Value PULSE(0 3.3 1 0 0 1 2 5)
SYMBOL voltage 448 112 R0
WINDOW 123 0 0 Left 2
WINDOW 39 24 124 Left 2
SYMATTR InstName V2
SYMATTR Value 5
SYMBOL pnp 288 128 M180
SYMATTR InstName Q2
SYMATTR Value 2N3906
SYMBOL npn 112 80 R0
SYMATTR InstName Q1
SYMATTR Value 2N2222
SYMBOL res 16 144 R270
WINDOW 0 32 56 VTop 2
WINDOW 3 0 56 VBottom 2
SYMATTR InstName R2
SYMATTR Value 100k
SYMBOL res 160 96 R270
WINDOW 0 32 56 VTop 2
WINDOW 3 0 56 VBottom 2
SYMATTR InstName R3
SYMATTR Value 10k
SYMBOL res 336 336 R0
SYMATTR InstName R1
SYMATTR Value 100
SYMBOL diode 336 128 R0
SYMATTR InstName D1
SYMBOL diode 336 192 R0
SYMATTR InstName D2
SYMBOL diode 336 256 R0
SYMATTR InstName D3
TEXT -280 328 Left 2 !.tran 10
